%Chk=TMS.chk
#p PBE1PBE/aug-cc-pVTZ opt freq

TMS OPT

0 1
Si                 0.55803574    0.47619047    0.00000000
C                  1.20468021   -1.35286692    0.00000000
H                  0.84800656   -1.85726539   -0.87365101
H                  2.27468021   -1.35287956   -0.00000060
H                  0.84800811   -1.85726538    0.87365165
C                  1.20471360    1.39070681    1.58400366
H                  2.27471179    1.38899975    1.58498202
H                  0.84965704    2.40007983    1.58302627
H                  0.84644463    0.88743881    2.45765386
C                  1.20471360    1.39070681   -1.58400366
H                  0.84813708    0.88623962   -2.45765464
H                  0.84796285    2.39948276   -1.58406265
H                  2.27471359    1.39079604   -1.58394482
C                 -1.38196426    0.47621437    0.00000000
H                 -1.73861818    1.48502455    0.00008817
H                 -1.73863683   -0.02810800   -0.87369539
H                 -1.73863733   -0.02826027    0.87360726

--Link1--
%Chk=TMS.chk
#p PBE1PBE/ChkBasis NMR Geom=Check Guess=Read

TMS NMR

0 1


