%chk=Diels-Alder.chk
# PM6 opt freq

opt

0  1
C  -3.86666681  1.11666665  0.0
C  -2.47150681  1.11666665  0.0
C  -1.77396881  2.32441765  0.0
C  -2.47162281  3.53292665  0.0
H  -4.41642581  0.16434965  0.0
H  -1.92199881  0.16415365  0.0
H  -0.67428881  2.32449765  0.0
H  -1.92142281  4.48506965  0.0
H  -3.86644781  3.53284865  0.0
H  -4.56404881  2.32464265  0.0
C  -3.86644781  3.53284865  1.3
C  -4.56404881  2.32464265  1.3
H  -4.41656981  4.48512965  1.3
H  -5.66365281  2.32482565  1.3
H  -3.86644781  3.53284865  2.3
H  -4.56404881  2.32464265  2.3

--Link1--
%chk=Diels-Alder.chk
# PM6 Geom=Check Guess=Read opt=ModRedundant freq

TS

0  1

B 1 12 S 20 0.2
A 2 3 11 F
A 2 3 12 F


